147
Lattice="1.0 0.0 0.0 0.0 1.0 0.0 0.0 0.0 1.0" Properties=species:S:1:pos:R:3:Z:I:1:tags:I:1:magmoms:R:1 pbc="F F F"
Pt      11.29723148       9.68964211      15.26661868       78        0       0.00000000 
Pt      12.41608827      23.01325225      16.67091233       78        0       0.00000000 
Pt       9.23243692      16.13771206      20.08301405       78        0       0.00000000 
Pt      19.58360481       8.98674775      15.32960414       78        0       0.00000000 
Pt       9.36842292      16.99925878      11.81335278       78        0       0.00000000 
Pt      15.54360658      11.18488938      22.25102894       78        0       0.00000000 
Pt      20.70212450      22.30949039      16.73385980       78        0       0.00000000 
Pt      16.23716847      19.42536867      23.11971499       78        0       0.00000000 
Pt      22.63076089      15.00073475      20.18662962       78        0       0.00000000 
Pt      15.76269245      12.57403113       8.88028502       78        0       0.00000000 
Pt      16.45635172      20.81457303       9.74923153       78        0       0.00000000 
Pt      22.76634525      15.86185001      11.91816411       78        0       0.00000000 
Pt      10.59968098      12.10128888      14.09143049       78        0       0.00000000 
Pt      11.30534738      20.75590101      17.83021033       78        0       0.00000000 
Pt      13.40528778      12.81433714      21.57736462       78        0       0.00000000 
Pt      10.33506440      19.04301964      13.41559787       78        0       0.00000000 
Pt      21.40000591      19.89908633      17.90863748       78        0       0.00000000 
Pt       9.95746891      14.53683976      12.94139084       78        0       0.00000000 
Pt      11.35105589      21.04846746      15.03445723       78        0       0.00000000 
Pt      18.40078164      17.96232490      22.19825949       78        0       0.00000000 
Pt      10.55320451      11.80933610      16.88716168       78        0       0.00000000 
Pt      20.69446242      11.24353716      14.17023980       78        0       0.00000000 
Pt      13.59847218      14.03764010       9.80206593       78        0       0.00000000 
Pt      18.59466130      19.18496504      10.42283143       78        0       0.00000000 
Pt      12.76162670      10.60534575      13.10056003       78        0       0.00000000 
Pt      11.30281658      14.46416959      20.85480100       78        0       0.00000000 
Pt      10.24529215      18.46304146      18.96753649       78        0       0.00000000 
Pt      21.66505690      12.95673294      18.58481657       78        0       0.00000000 
Pt      11.46662534      15.51217782      10.78087428       78        0       0.00000000 
Pt      22.04254509      17.46234201      19.05928588       78        0       0.00000000 
Pt      20.64878332      10.95092994      16.96572464       78        0       0.00000000 
Pt       9.86562383      13.96003315      18.49269674       78        0       0.00000000 
Pt      20.53380983      16.48724205      21.21906884       78        0       0.00000000 
Pt      17.74838976      20.43203032      21.03036772       78        0       0.00000000 
Pt      19.23871558      21.39448233      18.89913595       78        0       0.00000000 
Pt      11.53594491      17.25083925      21.15024942       78        0       0.00000000 
Pt      14.25114386      11.56724289      10.97047417       78        0       0.00000000 
Pt      21.44646727      20.19054803      15.11357575       78        0       0.00000000 
Pt       9.21259555      16.43106291      17.32537504       78        0       0.00000000 
Pt      20.69721709      17.53528242      11.14537353       78        0       0.00000000 
Pt      12.68893257      10.13588497      17.61984624       78        0       0.00000000 
Pt      21.75466690      13.53654029      13.03290819       78        0       0.00000000 
Pt       9.25930353      16.71777026      14.57063150       78        0       0.00000000 
Pt      13.87058156      18.34701401      22.16091417       78        0       0.00000000 
Pt      16.00468138      16.67217426      22.89435752       78        0       0.00000000 
Pt      15.18362613      22.84135326      16.69935391       78        0       0.00000000 
Pt      13.67412315      21.86650671      18.85664175       78        0       0.00000000 
Pt      14.10353762      10.63378989      19.94884756       78        0       0.00000000 
Pt      15.99539488      15.32765927       9.10553123       78        0       0.00000000 
Pt      16.81576160       9.15768244      15.30093313       78        0       0.00000000 
Pt      13.74834101      22.33786660      14.33774430       78        0       0.00000000 
Pt      22.13427678      18.03912361      13.50761654       78        0       0.00000000 
Pt      20.46396613      14.74846991      10.84993634       78        0       0.00000000 
Pt      14.05466878       9.39173773      15.28036083       78        0       0.00000000 
Pt      17.93426181      12.42980040      21.61149614       78        0       0.00000000 
Pt      18.25163783       9.66153703      17.66262869       78        0       0.00000000 
Pt      16.90478040      10.39495665      19.97125616       78        0       0.00000000 
Pt      18.12941077      13.65237489       9.83936238       78        0       0.00000000 
Pt      14.06531634      19.56962327      10.38869273       78        0       0.00000000 
Pt      22.78740445      15.56850610      14.67474682       78        0       0.00000000 
Pt      18.32567869      10.13306285      13.14328674       78        0       0.00000000 
Pt      19.31114282      21.86363123      14.38083901       78        0       0.00000000 
Pt      14.94867882      20.67141348      21.00843020       78        0       0.00000000 
Pt      22.74066848      15.28187461      17.43012407       78        0       0.00000000 
Pt      15.09531415      21.60436964      12.02907372       78        0       0.00000000 
Pt      17.94583663      22.60753443      16.71993346       78        0       0.00000000 
Pt      17.89622270      21.36533062      12.05128902       78        0       0.00000000 
Pt      15.77388918      13.92572356      22.60540426       78        0       0.00000000 
Pt      17.05148960      11.32776726      10.99199465       78        0       0.00000000 
Pt      11.70329978      18.29778015      11.07753378       78        0       0.00000000 
Pt      16.22613668      18.07335314       9.39450103       78        0       0.00000000 
Pt      20.29709980      13.70201396      20.92267634       78        0       0.00000000 
Pt      12.08461544      13.04428608      11.92628119       78        0       0.00000000 
Pt      19.91578967      18.95569789      20.07441832       78        0       0.00000000 
Pt      10.25639702      18.75722998      16.19163784       78        0       0.00000000 
Pt      12.57889939      19.57712474      20.01636101       78        0       0.00000000 
Pt      12.69920248      20.33924540      12.69680528       78        0       0.00000000 
Pt       9.87742415      14.25075905      15.71583245       78        0       0.00000000 
Pt      13.63693643      15.57678484      21.90334697       78        0       0.00000000 
Pt      21.74438667      13.24186144      15.80874166       78        0       0.00000000 
Pt      19.30119528      11.65984013      19.30367385       78        0       0.00000000 
Pt      16.45914697      21.66530567      18.88419734       78        0       0.00000000 
Pt      11.96449249      12.28324613      19.24771351       78        0       0.00000000 
Pt      19.42113492      12.42193590      11.98357301       78        0       0.00000000 
Pt      15.54072534      10.33426730      13.11618490       78        0       0.00000000 
Pt      18.36306473      16.42261132      10.09643385       78        0       0.00000000 
Pt      22.12342243      17.74902381      16.28448342       78        0       0.00000000 
Pt      15.46706764       9.86534927      17.63840702       78        0       0.00000000 
Pt      13.83193730      16.80697238      10.06135333       78        0       0.00000000 
Pt      18.16816132      15.19241284      21.93916343       78        0       0.00000000 
Pt      16.53286636      22.13394395      14.36175528       78        0       0.00000000 
Pt      20.03586831      19.71645110      12.75214670       78        0       0.00000000 
Pt      13.01286134      11.99411978      15.53271392       78        0       0.00000000 
Pt      13.72356885      20.45325951      16.42510100       78        0       0.00000000 
Pt      11.70264136      16.08767206      18.59451500       78        0       0.00000000 
Pt      18.27709243      11.54624568      15.57558784       78        0       0.00000000 
Pt      11.78014158      16.63714928      13.34323512       78        0       0.00000000 
Pt      15.70789809      12.94155127      19.96910620       78        0       0.00000000 
Pt      16.15133426      18.17491505      20.52093839       78        0       0.00000000 
Pt      15.84931529      13.82488778      11.47841564       78        0       0.00000000 
Pt      18.98770208      20.00545781      16.46803088       78        0       0.00000000 
Pt      16.29271064      19.05800282      12.03144035       78        0       0.00000000 
Pt      20.21045593      15.36293012      18.65732433       78        0       0.00000000 
Pt      20.29789152      15.91213976      13.40627804       78        0       0.00000000 
Pt      14.40476540      12.85862334      13.46502601       78        0       0.00000000 
Pt      13.78200704      15.21683052      12.35057000       78        0       0.00000000 
Pt      12.65986945      18.30657478      17.53404949       78        0       0.00000000 
Pt      12.70258644      18.58641427      14.86464019       78        0       0.00000000 
Pt      12.34134825      14.28683808      14.41066930       78        0       0.00000000 
Pt      15.63878150      11.69949520      15.54536552       78        0       0.00000000 
Pt      17.59614104      19.14111201      18.53559849       78        0       0.00000000 
Pt      18.21888874      16.78313320      19.64991175       78        0       0.00000000 
Pt      13.66940959      14.48899022      19.33504378       78        0       0.00000000 
Pt      16.36219608      20.30016226      16.45546426       78        0       0.00000000 
Pt      11.67486856      16.36744336      15.96707805       78        0       0.00000000 
Pt      19.34103993      13.69350722      14.46689654       78        0       0.00000000 
Pt      19.29828074      13.41381911      17.13618703       78        0       0.00000000 
Pt      13.89336599      17.15112880      19.61683105       78        0       0.00000000 
Pt      14.00953216      17.87766549      12.63239534       78        0       0.00000000 
Pt      14.33262187      12.40800782      17.77846512       78        0       0.00000000 
Pt      19.65929188      17.71299357      17.58999711       78        0       0.00000000 
Pt      14.99108418      19.81827405      14.19969205       78        0       0.00000000 
Pt      17.00992739      12.18162652      17.80116657       78        0       0.00000000 
Pt      15.93038302      15.55084376      20.31593639       78        0       0.00000000 
Pt      18.33139907      17.51078488      12.66574044       78        0       0.00000000 
Pt      14.92060949      19.36914284      18.51390030       78        0       0.00000000 
Pt      12.29785522      14.00901990      17.08059180       78        0       0.00000000 
Pt      16.07046666      16.44916437      11.68450985       78        0       0.00000000 
Pt      18.10759462      14.84891025      12.38397351       78        0       0.00000000 
Pt      17.08041405      12.63071382      13.48686353       78        0       0.00000000 
Pt      17.99137819      14.12237390      19.36810156       78        0       0.00000000 
Pt      20.32570542      15.63254273      16.03386948       78        0       0.00000000 
Pt      17.66826906      19.59153090      14.22247829       78        0       0.00000000 
Pt      19.70272323      17.99071304      14.92044504       78        0       0.00000000 
Pt      14.86614477      18.22030926      16.21164154       78        0       0.00000000 
Pt      17.13476109      13.77890669      15.78948824       78        0       0.00000000 
Pt      13.90275071      16.31687109      14.67477573       78        0       0.00000000 
Pt      14.51103359      14.00409923      15.76851142       78        0       0.00000000 
Pt      16.07587127      17.08332049      18.25362080       78        0       0.00000000 
Pt      18.09826188      15.68336255      17.32625590       78        0       0.00000000 
Pt      15.92509467      14.91696813      13.74745992       78        0       0.00000000 
Pt      13.85963128      16.04330767      17.29254050       78        0       0.00000000 
Pt      15.85481915      14.47495380      17.97689781       78        0       0.00000000 
Au      16.14621283      17.52516244      14.02413599       79        0       0.00000000 
Pt      17.49002521      17.99609923      16.23260759       78        0       0.00000000 
Pt      18.14122774      15.95690369      14.70866334       78        0       0.00000000 
Pt      16.00010850      16.00002759      16.00051462       78        0       0.00000000 
